# KPP parameters
 &KPP_PARM01
 KPPmixingMaps   = .FALSE.,
 KPPwriteState   = .FALSE.,
 kpp_dumpFreq    = 3600.0,
 Riinfty = 0.3,
 &
